sol/case24_ieee_rts.m
function mpc = case24_ieee_rts
%CASE24_IEEE_RTS

%% MATPOWER Case Format : Version 2
mpc.version = '2';

%%-----  Power Flow Data  -----%%
%% system MVA base
mpc.baseMVA = 100;

%% bus data
%	bus_i	type	Pd	Qd	Gs	Bs	area	Vm	Va	baseKV	zone	Vmax	Vmin	lam_P	lam_Q	mu_Vmax	mu_Vmin
mpc.bus = [
	1	2	108	22	0	0	1	1.047217	-6.75518262	138	1	1.05	0.95	49.5876	-0.0000	0.4176	0.0000;
	2	2	97	20	0	0	1	1.04719558	-6.83082884	138	1	1.05	0.95	49.6122	-0.0000	0.4090	0.0000;
	3	1	180	37	0	0	1	1.01377681	-6.18738419	138	1	1.05	0.95	49.6870	0.7488	0.0000	0.0000;
	4	1	74	15	0	0	1	1.01624421	-9.57420241	138	1	1.05	0.95	51.1228	0.3634	0.0000	0.0000;
	5	1	71	14	0	0	1	1.03542167	-9.73741382	138	1	1.05	0.95	50.8508	-0.0645	0.0000	0.0000;
	6	1	136	28	0	-100	2	1.03240324	-12.3104569	138	1	1.05	0.95	51.8193	-0.2541	0.0000	0.0000;
	7	2	125	25	0	0	2	1.03601084	-9.87655868	138	1	1.05	0.95	51.0717	-0.0000	0.0000	0.0000;
	8	1	171	35	0	0	2	1.00896728	-12.5531124	138	1	1.05	0.95	52.4252	0.3288	0.0000	0.0000;
	9	1	175	36	0	0	1	1.02392756	-7.81818017	138	1	1.05	0.95	50.3982	0.2629	0.0000	0.0000;
	10	1	195	40	0	0	2	1.04999991	-9.67825203	138	1	1.05	0.95	50.6569	-0.4441	1496.9673	0.0000;
	11	1	0	0	0	0	3	1.02263087	-2.61303959	230	1	1.05	0.95	50.2735	0.0346	0.0000	0.0000;
	12	1	0	0	0	0	3	1.0172757	-1.87602345	230	1	1.05	0.95	50.1731	0.0897	0.0000	0.0000;
	13	3	265	54	0	0	3	1.03348446	0	230	1	1.05	0.95	49.7072	-0.0000	0.0000	0.0000;
	14	2	194	39	0	0	3	1.03986947	1.01246615	230	1	1.05	0.95	49.4543	0.0000	0.0000	0.0000;
	15	2	317	64	0	0	4	1.04106018	9.32440135	230	1	1.05	0.95	47.6431	0.1405	0.0000	0.0000;
	16	2	100	20	0	0	4	1.04427766	8.5426052	230	1	1.05	0.95	47.8050	0.0941	0.0000	0.0000;
	17	1	0	0	0	0	4	1.04756408	12.8916697	230	1	1.05	0.95	46.8651	0.0605	0.0000	0.0000;
	18	2	333	68	0	0	4	1.0499996	14.2470775	230	1	1.05	0.95	46.5751	-0.0000	365.2987	0.0000;
	19	1	181	37	0	0	3	1.03894704	7.49318451	230	1	1.05	0.95	48.0451	0.1074	0.0000	0.0000;
	20	1	128	26	0	0	3	1.04397382	8.45232088	230	1	1.05	0.95	47.8344	0.0524	0.0000	0.0000;
	21	2	0	0	0	0	4	1.04999987	15.0230014	230	1	1.05	0.95	46.4105	-0.0000	1108.6772	0.0000;
	22	2	0	0	0	0	4	1.04999977	20.6912338	230	1	1.05	0.95	45.2387	-0.0000	662.3342	0.0000;
	23	2	0	0	0	0	3	1.04999981	9.68378987	230	1	1.05	0.95	47.5637	-0.0000	797.2840	0.0000;
	24	1	0	0	0	0	4	1.00584437	3.66834647	230	1	1.05	0.95	48.9983	0.5897	0.0000	0.0000;
];

%% generator data
%	bus	Pg	Qg	Qmax	Qmin	Vg	mBase	status	Pmax	Pmin	Pc1	Pc2	Qc1min	Qc1max	Qc2min	Qc2max	ramp_agc	ramp_10	ramp_30	ramp_q	apf	mu_Pmax	mu_Pmin	mu_Qmax	mu_Qmin
mpc.gen = [
	1	16.0000018	4.66852008	10	0	1.047217	100	1	20	16	0	0	0	0	0	0	0	0	0	0	0	0.0000	80.4125	0.0000	0.0000;
	1	16.0000018	4.66852008	10	0	1.047217	100	1	20	16	0	0	0	0	0	0	0	0	0	0	0	0.0000	80.4125	0.0000	0.0000;
	1	75.9999953	-1.38678867	30	-25	1.047217	100	1	76	15.2	0	0	0	0	0	0	0	0	0	0	0	31.3569	0.0000	0.0000	0.0000;
	1	75.9999953	-1.38678867	30	-25	1.047217	100	1	76	15.2	0	0	0	0	0	0	0	0	0	0	0	31.3569	0.0000	0.0000	0.0000;
	2	16.0000018	4.65079255	10	0	1.04719558	100	1	20	16	0	0	0	0	0	0	0	0	0	0	0	0.0000	80.3878	0.0000	0.0000;
	2	16.0000018	4.65079255	10	0	1.04719558	100	1	20	16	0	0	0	0	0	0	0	0	0	0	0	0.0000	80.3878	0.0000	0.0000;
	2	75.9999953	-2.7655247	30	-25	1.04719558	100	1	76	15.2	0	0	0	0	0	0	0	0	0	0	0	31.3815	0.0000	0.0000	0.0000;
	2	75.9999953	-2.7655247	30	-25	1.04719558	100	1	76	15.2	0	0	0	0	0	0	0	0	0	0	0	31.3815	0.0000	0.0000	0.0000;
	7	70.3428884	16.43986	60	0	1.03601084	100	1	100	25	0	0	0	0	0	0	0	0	0	0	0	0.0000	0.0000	0.0000	0.0000;
	7	70.3428884	16.43986	60	0	1.03601084	100	1	100	25	0	0	0	0	0	0	0	0	0	0	0	0.0000	0.0000	0.0000	0.0000;
	7	70.3428884	16.43986	60	0	1.03601084	100	1	100	25	0	0	0	0	0	0	0	0	0	0	0	0.0000	0.0000	0.0000	0.0000;
	13	78.5789492	32.5999812	80	0	1.03348446	100	1	197	69	0	0	0	0	0	0	0	0	0	0	0	0.0000	0.0000	0.0000	0.0000;
	13	78.5789492	32.5999812	80	0	1.03348446	100	1	197	69	0	0	0	0	0	0	0	0	0	0	0	0.0000	0.0000	0.0000	0.0000;
	13	78.5789492	32.5999812	80	0	1.03348446	100	1	197	69	0	0	0	0	0	0	0	0	0	0	0	0.0000	0.0000	0.0000	0.0000;
	14	0	114.920075	200	-50	1.03986947	100	1	0	0	0	0	0	0	0	0	0	0	0	0	0	49.4543	0.0000	0.0000	0.0000;
	15	2.40001412	5.99893788	6	0	1.04106018	100	1	12	2.4	0	0	0	0	0	0	0	0	0	0	0	0.0000	10.4973	0.1405	0.0000;
	15	2.40001412	5.99893788	6	0	1.04106018	100	1	12	2.4	0	0	0	0	0	0	0	0	0	0	0	0.0000	10.4973	0.1405	0.0000;
	15	2.40001412	5.99893788	6	0	1.04106018	100	1	12	2.4	0	0	0	0	0	0	0	0	0	0	0	0.0000	10.4973	0.1405	0.0000;
	15	2.40001412	5.99893788	6	0	1.04106018	100	1	12	2.4	0	0	0	0	0	0	0	0	0	0	0	0.0000	10.4973	0.1405	0.0000;
	15	2.40001412	5.99893788	6	0	1.04106018	100	1	12	2.4	0	0	0	0	0	0	0	0	0	0	0	0.0000	10.4973	0.1405	0.0000;
	15	154.999995	79.9989458	80	-50	1.04106018	100	1	155	54.3	0	0	0	0	0	0	0	0	0	0	0	32.6688	0.0000	0.1405	0.0000;
	16	154.999995	79.9984321	80	-50	1.04427766	100	1	155	54.3	0	0	0	0	0	0	0	0	0	0	0	32.8307	0.0000	0.0941	0.0000;
	18	399.999996	72.8943239	200	-50	1.0499996	100	1	400	100	0	0	0	0	0	0	0	0	0	0	0	41.9816	0.0000	0.0000	0.0000;
	21	399.999996	-7.45447779	200	-50	1.04999987	100	1	400	100	0	0	0	0	0	0	0	0	0	0	0	41.8170	0.0000	0.0000	0.0000;
	22	49.9999967	-6.41333363	16	-10	1.04999977	100	1	50	10	0	0	0	0	0	0	0	0	0	0	0	45.2377	0.0000	0.0000	0.0000;
	22	49.9999967	-6.41333363	16	-10	1.04999977	100	1	50	10	0	0	0	0	0	0	0	0	0	0	0	45.2377	0.0000	0.0000	0.0000;
	22	49.9999967	-6.41333363	16	-10	1.04999977	100	1	50	10	0	0	0	0	0	0	0	0	0	0	0	45.2377	0.0000	0.0000	0.0000;
	22	49.9999967	-6.41333363	16	-10	1.04999977	100	1	50	10	0	0	0	0	0	0	0	0	0	0	0	45.2377	0.0000	0.0000	0.0000;
	22	49.9999967	-6.41333363	16	-10	1.04999977	100	1	50	10	0	0	0	0	0	0	0	0	0	0	0	45.2377	0.0000	0.0000	0.0000;
	22	49.9999967	-6.41333363	16	-10	1.04999977	100	1	50	10	0	0	0	0	0	0	0	0	0	0	0	45.2377	0.0000	0.0000	0.0000;
	23	154.999995	2.46224125	80	-50	1.04999981	100	1	155	54.3	0	0	0	0	0	0	0	0	0	0	0	32.5894	0.0000	0.0000	0.0000;
	23	154.999995	2.46224125	80	-50	1.04999981	100	1	155	54.3	0	0	0	0	0	0	0	0	0	0	0	32.5894	0.0000	0.0000	0.0000;
	23	349.999995	40.7055926	150	-25	1.04999981	100	1	350	140	0	0	0	0	0	0	0	0	0	0	0	32.2877	0.0000	0.0000	0.0000;
];

%% branch data
%	fbus	tbus	r	x	b	rateA	rateB	rateC	ratio	angle	status	angmin	angmax	Pf	Qf	Pt	Qt	mu_Sf	mu_St	mu_angmin	mu_angmax
mpc.branch = [
	1	2	0.0026	0.0139	0.4611	175	250	200	0	0	1	-360	360	10.0946	-27.0035	-10.0921	-23.5493	0.0000	0.0000	0.0000	0.0000;
	1	3	0.0546	0.2112	0.0572	175	208	220	0	0	1	-360	360	-0.6453	13.6361	0.7856	-19.1693	0.0000	0.0000	0.0000	0.0000;
	1	5	0.0218	0.0845	0.0229	175	208	220	0	0	1	-360	360	66.5507	-2.0691	-65.6701	2.9990	0.0000	0.0000	0.0000	0.0000;
	2	4	0.0328	0.1267	0.0343	175	208	220	0	0	1	-360	360	44.1170	13.2428	-43.4664	-14.3817	0.0000	0.0000	0.0000	0.0000;
	2	6	0.0497	0.192	0.052	175	208	220	0	0	1	-360	360	52.9751	-5.9229	-51.6990	5.2305	0.0000	0.0000	0.0000	0.0000;
	3	9	0.0308	0.119	0.0322	175	208	220	0	0	1	-360	360	21.2541	-15.4500	-21.0617	12.8508	0.0000	0.0000	0.0000	0.0000;
	3	24	0.0023	0.0839	0	400	510	600	1.03	0	1	-360	360	-202.0397	-2.3807	203.0089	37.7385	0.0000	0.0000	0.0000	0.0000;
	4	9	0.0268	0.1037	0.0281	175	208	220	0	0	1	-360	360	-30.5336	-0.6183	30.7757	-1.3689	0.0000	0.0000	0.0000	0.0000;
	5	10	0.0228	0.0883	0.0239	175	208	220	0	0	1	-360	360	-5.3299	-16.9990	5.3884	14.6272	0.0000	0.0000	0.0000	0.0000;
	6	10	0.0139	0.0605	2.459	175	193	200	0	0	1	-360	360	-84.3010	-139.8161	85.2378	-122.7058	0.0000	0.0000	0.0000	0.0000;
	7	8	0.0159	0.0614	0.0166	175	208	220	0	0	1	-360	360	86.0287	24.3196	-84.8381	-21.4581	0.0000	0.0000	0.0000	0.0000;
	8	9	0.0427	0.1651	0.0447	175	208	220	0	0	1	-360	360	-50.1132	3.6785	51.1814	-4.1667	0.0000	0.0000	0.0000	0.0000;
	8	10	0.0427	0.1651	0.0447	175	208	220	0	0	1	-360	360	-36.0486	-17.2204	36.6874	14.9508	0.0000	0.0000	0.0000	0.0000;
	9	11	0.0023	0.0839	0	400	510	600	1.03	0	1	-360	360	-110.6327	-25.7706	110.9330	36.7256	0.0000	0.0000	0.0000	0.0000;
	9	12	0.0023	0.0839	0	400	510	600	1.03	0	1	-360	360	-125.2628	-17.5446	125.6351	31.1271	0.0000	0.0000	0.0000	0.0000;
	10	11	0.0023	0.0839	0	400	510	600	1.02	0	1	-360	360	-153.7242	22.0612	154.2477	-2.9661	0.0000	0.0000	0.0000	0.0000;
	10	12	0.0023	0.0839	0	400	510	600	1.02	0	1	-360	360	-168.5895	31.0665	169.2273	-7.7992	0.0000	0.0000	0.0000	0.0000;
	11	13	0.0061	0.0476	0.0999	500	600	625	0	0	1	-360	360	-102.2385	-13.1307	102.8519	7.3581	0.0000	0.0000	0.0000	0.0000;
	11	14	0.0054	0.0418	0.0879	500	625	625	0	0	1	-360	360	-162.9421	-20.6288	164.3263	21.9951	0.0000	0.0000	0.0000	0.0000;
	12	13	0.0061	0.0476	0.0999	500	625	625	0	0	1	-360	360	-75.3558	-28.9686	75.7239	21.3369	0.0000	0.0000	0.0000	0.0000;
	12	23	0.0124	0.0966	0.203	500	625	625	0	0	1	-360	360	-219.5066	5.6407	225.3114	17.8860	0.0000	0.0000	0.0000	0.0000;
	13	23	0.0111	0.0865	0.1818	500	625	625	0	0	1	-360	360	-207.8390	15.1050	212.3921	0.6464	0.0000	0.0000	0.0000	0.0000;
	14	16	0.005	0.0389	0.0818	500	625	625	0	0	1	-360	360	-358.3263	53.9250	364.4208	-15.3929	0.0000	0.0000	0.0000	0.0000;
	15	16	0.0022	0.0173	0.0364	500	600	625	0	0	1	-360	360	82.0295	-31.1808	-81.8756	28.4338	0.0000	0.0000	0.0000	0.0000;
	15	21	0.0063	0.049	0.103	500	600	625	0	0	1	-360	360	-218.9182	14.5965	221.7277	-4.0044	0.0000	0.0000	0.0000	0.0000;
	15	21	0.0063	0.049	0.103	500	600	625	0	0	1	-360	360	-218.9182	14.5965	221.7277	-4.0044	0.0000	0.0000	0.0000	0.0000;
	15	24	0.0067	0.0519	0.1091	500	600	625	0	0	1	-360	360	205.8069	47.9815	-203.0089	-37.7385	0.0000	0.0000	0.0000	0.0000;
	16	17	0.0033	0.0259	0.0545	500	600	625	0	0	1	-360	360	-315.3169	36.1151	318.3718	-18.1007	0.0000	0.0000	0.0000	0.0000;
	16	19	0.003	0.0231	0.0485	500	600	625	0	0	1	-360	360	87.7717	10.8424	-87.5547	-14.4341	0.0000	0.0000	0.0000	0.0000;
	17	18	0.0018	0.0144	0.0303	500	600	625	0	0	1	-360	360	-179.8196	5.2343	180.3507	-4.3179	0.0000	0.0000	0.0000	0.0000;
	17	22	0.0135	0.1053	0.2212	500	600	625	0	0	1	-360	360	-138.5522	12.8664	140.9907	-18.1771	0.0000	0.0000	0.0000	0.0000;
	18	21	0.0033	0.0259	0.0545	500	600	625	0	0	1	-360	360	-56.6754	4.6061	56.7732	-9.8465	0.0000	0.0000	0.0000	0.0000;
	18	21	0.0033	0.0259	0.0545	500	600	625	0	0	1	-360	360	-56.6754	4.6061	56.7732	-9.8465	0.0000	0.0000	0.0000	0.0000;
	19	20	0.0051	0.0396	0.0833	500	600	625	0	0	1	-360	360	-46.7226	-11.2830	46.8279	3.0656	0.0000	0.0000	0.0000	0.0000;
	19	20	0.0051	0.0396	0.0833	500	600	625	0	0	1	-360	360	-46.7226	-11.2830	46.8279	3.0656	0.0000	0.0000	0.0000	0.0000;
	20	23	0.0028	0.0216	0.0455	500	600	625	0	0	1	-360	360	-110.8279	-16.0656	111.1482	13.5488	0.0000	0.0000	0.0000	0.0000;
	20	23	0.0028	0.0216	0.0455	500	600	625	0	0	1	-360	360	-110.8279	-16.0656	111.1482	13.5488	0.0000	0.0000	0.0000	0.0000;
	21	22	0.0087	0.0678	0.1424	500	600	625	0	0	1	-360	360	-157.0018	20.2475	159.0093	-20.3029	0.0000	0.0000	0.0000	0.0000;
];

%%-----  OPF Data  -----%%
%% generator cost data
%	1	startup	shutdown	n	x1	y1	...	xn	yn
%	2	startup	shutdown	n	c(n-1)	...	c0
mpc.gencost = [
	2	1500	0	3	0	130	400.6849;
	2	1500	0	3	0	130	400.6849;
	2	1500	0	3	0.014142	16.0811	212.3076;
	2	1500	0	3	0.014142	16.0811	212.3076;
	2	1500	0	3	0	130	400.6849;
	2	1500	0	3	0	130	400.6849;
	2	1500	0	3	0.014142	16.0811	212.3076;
	2	1500	0	3	0.014142	16.0811	212.3076;
	2	1500	0	3	0.052672	43.6615	781.521;
	2	1500	0	3	0.052672	43.6615	781.521;
	2	1500	0	3	0.052672	43.6615	781.521;
	2	1500	0	3	0.00717	48.5804	832.7575;
	2	1500	0	3	0.00717	48.5804	832.7575;
	2	1500	0	3	0.00717	48.5804	832.7575;
	2	1500	0	3	0	0	0;
	2	1500	0	3	0.328412	56.564	86.3852;
	2	1500	0	3	0.328412	56.564	86.3852;
	2	1500	0	3	0.328412	56.564	86.3852;
	2	1500	0	3	0.328412	56.564	86.3852;
	2	1500	0	3	0.328412	56.564	86.3852;
	2	1500	0	3	0.008342	12.3883	382.2391;
	2	1500	0	3	0.008342	12.3883	382.2391;
	2	1500	0	3	0.000213	4.4231	395.3749;
	2	1500	0	3	0.000213	4.4231	395.3749;
	2	1500	0	3	0	0.001	0.001;
	2	1500	0	3	0	0.001	0.001;
	2	1500	0	3	0	0.001	0.001;
	2	1500	0	3	0	0.001	0.001;
	2	1500	0	3	0	0.001	0.001;
	2	1500	0	3	0	0.001	0.001;
	2	1500	0	3	0.008342	12.3883	382.2391;
	2	1500	0	3	0.008342	12.3883	382.2391;
	2	1500	0	3	0.004895	11.8495	665.1094;
];
